<?xml version="1.0" encoding="UTF-8"?>

<!-- generated on 2025-04-22 09:47:05 by Eclipse SUMO netedit Version 1.22.0
<neteditConfiguration xmlns:xsi="http://www.w3.org/2001/XMLSchema-instance" xsi:noNamespaceSchemaLocation="http://sumo.dlr.de/xsd/neteditConfiguration.xsd">

    <input>
        <sumo-net-file value="D:\Nottingham Year3\Spring\COMP-3071 Design Intelligent Agents\Coursework\netfile\NGSIM.net.xml"/>
    </input>

    <output>
        <output-file value="D:\Nottingham Year3\Spring\COMP-3071 Design Intelligent Agents\Coursework\netfile\NGSIM.net.xml"/>
    </output>

    <processing>
        <geometry.min-radius.fix.railways value="false"/>
        <geometry.max-grade.fix value="false"/>
        <offset.disable-normalization value="true"/>
        <lefthand value="0"/>
    </processing>

    <junctions>
        <no-turnarounds value="true"/>
        <junctions.corner-detail value="5"/>
        <junctions.limit-turn-speed value="5.50"/>
        <rectangular-lane-cut value="0"/>
    </junctions>

    <pedestrian>
        <walkingareas value="0"/>
    </pedestrian>

</neteditConfiguration>
-->

<net version="1.20" junctionCornerDetail="5" limitTurnSpeed="5.50" xmlns:xsi="http://www.w3.org/2001/XMLSchema-instance" xsi:noNamespaceSchemaLocation="http://sumo.dlr.de/xsd/net_file.xsd">

    <location netOffset="0.00,0.00" convBoundary="-100.00,-100.00,170.00,545.00" origBoundary="-10000000000.00,-10000000000.00,10000000000.00,10000000000.00" projParameter="!"/>

    <edge id=":J0_0" function="internal">
        <lane id=":J0_0_0" index="0" speed="8.54" length="14.27" shape="-5.46,15.91 -6.60,11.05 -8.19,7.58 -10.21,5.49 -12.67,4.80"/>
    </edge>
    <edge id=":J0_1" function="internal">
        <lane id=":J0_1_0" index="0" speed="17.00" length="32.56" shape="-5.46,15.91 -6.40,5.97 -6.05,-2.24 -5.25,-9.55 -4.80,-16.80"/>
        <lane id=":J0_1_1" index="1" speed="17.00" length="32.56" shape="-2.30,15.39 -3.23,5.52 -2.88,-2.51 -2.06,-9.63 -1.60,-16.80"/>
    </edge>
    <edge id=":J0_3" function="internal">
        <lane id=":J0_3_0" index="0" speed="9.83" length="7.92" shape="0.85,14.86 0.62,7.66 0.89,7.00"/>
    </edge>
    <edge id=":J0_17" function="internal">
        <lane id=":J0_17_0" index="0" speed="9.83" length="16.82" shape="0.89,7.00 2.67,2.52 7.00,-0.57 13.60,-1.60"/>
    </edge>
    <edge id=":J0_4" function="internal">
        <lane id=":J0_4_0" index="0" speed="6.53" length="10.25" shape="13.60,8.00 10.42,8.36 8.29,9.45 7.21,11.27 7.17,13.81"/>
    </edge>
    <edge id=":J0_5" function="internal">
        <lane id=":J0_5_0" index="0" speed="17.00" length="26.51" shape="13.60,8.00 5.32,7.50 -0.74,6.40 -6.20,5.30 -12.67,4.80"/>
        <lane id=":J0_5_1" index="1" speed="17.00" length="26.51" shape="13.60,4.80 5.32,4.30 -0.74,3.20 -6.20,2.10 -12.67,1.60"/>
    </edge>
    <edge id=":J0_7" function="internal">
        <lane id=":J0_7_0" index="0" speed="10.88" length="6.52" shape="13.60,1.60 7.18,0.49"/>
    </edge>
    <edge id=":J0_18" function="internal">
        <lane id=":J0_18_0" index="0" speed="10.88" length="20.63" shape="7.18,0.49 6.95,0.45 2.20,-3.00 -0.65,-8.75 -1.60,-16.80"/>
    </edge>
    <edge id=":J0_8" function="internal">
        <lane id=":J0_8_0" index="0" speed="7.33" length="11.73" shape="8.00,-16.80 8.35,-12.95 9.40,-10.20 11.15,-8.55 13.60,-8.00"/>
    </edge>
    <edge id=":J0_9" function="internal">
        <lane id=":J0_9_0" index="0" speed="17.00" length="30.94" shape="8.00,-16.80 7.64,-7.08 6.97,0.43 6.60,6.97 7.17,13.81"/>
        <lane id=":J0_9_1" index="1" speed="17.00" length="30.94" shape="4.80,-16.80 4.45,-6.99 3.79,0.69 3.44,7.42 4.01,14.33"/>
    </edge>
    <edge id=":J0_11" function="internal">
        <lane id=":J0_11_0" index="0" speed="10.74" length="9.05" shape="1.60,-16.80 0.71,-8.75 0.31,-7.89"/>
    </edge>
    <edge id=":J0_19" function="internal">
        <lane id=":J0_19_0" index="0" speed="10.74" length="17.37" shape="0.31,-7.89 -1.97,-3.00 -6.42,0.45 -12.67,1.60"/>
    </edge>
    <edge id=":J0_12" function="internal">
        <lane id=":J0_12_0" index="0" speed="7.09" length="10.92" shape="-12.67,-11.20 -9.22,-11.55 -6.77,-12.60 -5.29,-14.35 -4.80,-16.80"/>
    </edge>
    <edge id=":J0_13" function="internal">
        <lane id=":J0_13_0" index="0" speed="17.00" length="26.52" shape="-12.67,-11.20 -4.84,-10.70 0.47,-9.60 5.78,-8.50 13.60,-8.00"/>
        <lane id=":J0_13_1" index="1" speed="17.00" length="26.52" shape="-12.67,-8.00 -4.84,-7.50 0.47,-6.40 5.78,-5.30 13.60,-4.80"/>
        <lane id=":J0_13_2" index="2" speed="17.00" length="26.52" shape="-12.67,-4.80 -4.84,-4.30 0.47,-3.20 5.78,-2.10 13.60,-1.60"/>
    </edge>
    <edge id=":J0_16" function="internal">
        <lane id=":J0_16_0" index="0" speed="11.25" length="6.64" shape="-12.67,-1.60 -6.37,-0.60 -6.14,-0.47"/>
    </edge>
    <edge id=":J0_20" function="internal">
        <lane id=":J0_20_0" index="0" speed="11.25" length="18.79" shape="-6.14,-0.47 -1.49,2.38 1.97,7.36 4.01,14.33"/>
    </edge>
    <edge id=":J1_0" function="internal">
        <lane id=":J1_0_0" index="0" speed="10.97" length="17.83" shape="22.66,163.22 19.71,158.13 16.64,154.50 13.48,152.33 10.20,151.60"/>
    </edge>
    <edge id=":J1_1" function="internal">
        <lane id=":J1_1_0" index="0" speed="17.00" length="24.20" shape="22.66,163.22 19.42,156.51 17.57,151.74 16.38,146.74 15.12,139.39"/>
        <lane id=":J1_1_1" index="1" speed="17.00" length="24.20" shape="25.53,161.79 22.40,155.34 20.63,150.74 19.49,145.94 18.28,138.87"/>
        <lane id=":J1_1_2" index="2" speed="17.00" length="24.20" shape="28.39,160.36 25.39,154.16 23.69,149.75 22.60,145.13 21.43,138.34"/>
    </edge>
    <edge id=":J1_4" function="internal">
        <lane id=":J1_4_0" index="0" speed="8.16" length="5.21" shape="28.39,160.36 26.82,155.39"/>
    </edge>
    <edge id=":J1_15" function="internal">
        <lane id=":J1_15_0" index="0" speed="8.16" length="14.83" shape="26.82,155.39 26.73,155.12 27.74,151.39 31.42,149.15 37.76,148.40"/>
    </edge>
    <edge id=":J1_5" function="internal">
        <lane id=":J1_5_0" index="0" speed="5.74" length="9.18" shape="37.76,151.60 35.06,151.97 33.55,153.07 33.24,154.91 34.11,157.49"/>
    </edge>
    <edge id=":J1_6" function="internal">
        <lane id=":J1_6_0" index="0" speed="17.00" length="27.55" shape="37.76,151.60 10.20,151.60"/>
    </edge>
    <edge id=":J1_7" function="internal">
        <lane id=":J1_7_0" index="0" speed="10.77" length="7.93" shape="37.76,151.60 31.44,150.77 30.06,150.06"/>
    </edge>
    <edge id=":J1_16" function="internal">
        <lane id=":J1_16_0" index="0" speed="10.77" length="15.28" shape="30.06,150.06 26.62,148.28 23.28,144.14 21.43,138.34"/>
    </edge>
    <edge id=":J1_8" function="internal">
        <lane id=":J1_8_0" index="0" speed="9.13" length="16.42" shape="27.75,137.29 29.07,142.15 31.18,145.62 34.07,147.71 37.76,148.40"/>
    </edge>
    <edge id=":J1_9" function="internal">
        <lane id=":J1_9_0" index="0" speed="17.00" length="21.79" shape="27.75,137.29 28.81,143.35 29.87,147.74 31.46,151.95 34.11,157.49"/>
        <lane id=":J1_9_1" index="1" speed="17.00" length="21.79" shape="24.59,137.81 25.70,144.02 26.86,148.71 28.55,153.24 31.25,158.92"/>
    </edge>
    <edge id=":J1_11" function="internal">
        <lane id=":J1_11_0" index="0" speed="9.62" length="4.09" shape="24.59,137.81 24.57,141.90"/>
    </edge>
    <edge id=":J1_17" function="internal">
        <lane id=":J1_17_0" index="0" speed="9.62" length="19.53" shape="24.57,141.90 24.55,143.84 22.14,148.15 17.36,150.74 10.20,151.60"/>
    </edge>
    <edge id=":J1_12" function="internal">
        <lane id=":J1_12_0" index="0" speed="6.18" length="9.05" shape="10.20,145.20 12.72,144.84 14.38,143.75 15.18,141.93 15.12,139.39"/>
    </edge>
    <edge id=":J1_13" function="internal">
        <lane id=":J1_13_0" index="0" speed="17.00" length="27.76" shape="10.20,145.20 18.02,145.70 25.85,146.80 32.75,147.90 37.76,148.40"/>
    </edge>
    <edge id=":J1_14" function="internal">
        <lane id=":J1_14_0" index="0" speed="12.88" length="7.27" shape="10.20,148.40 17.44,149.06"/>
    </edge>
    <edge id=":J1_18" function="internal">
        <lane id=":J1_18_0" index="0" speed="12.88" length="17.56" shape="17.44,149.06 23.36,151.03 27.96,154.32 31.25,158.92"/>
    </edge>
    <edge id=":J2_0" function="internal">
        <lane id=":J2_0_0" index="0" speed="8.79" length="14.83" shape="93.86,310.45 92.59,306.58 90.46,303.81 87.49,302.15 83.67,301.60"/>
    </edge>
    <edge id=":J2_1" function="internal">
        <lane id=":J2_1_0" index="0" speed="17.00" length="20.09" shape="93.86,310.45 92.68,304.89 91.51,301.17 89.88,297.60 87.31,292.51"/>
        <lane id=":J2_1_1" index="1" speed="17.00" length="20.09" shape="97.01,309.85 95.77,304.03 94.56,300.13 92.86,296.40 90.17,291.08"/>
        <lane id=":J2_1_2" index="2" speed="17.00" length="20.09" shape="100.15,309.24 98.86,303.17 97.60,299.10 95.84,295.20 93.03,289.64"/>
    </edge>
    <edge id=":J2_4" function="internal">
        <lane id=":J2_4_0" index="0" speed="9.04" length="3.10" shape="100.15,309.24 100.22,306.15"/>
    </edge>
    <edge id=":J2_16" function="internal">
        <lane id=":J2_16_0" index="0" speed="9.04" length="17.98" shape="100.22,306.15 100.26,304.50 102.67,301.11 107.38,299.08 114.39,298.40"/>
    </edge>
    <edge id=":J2_5" function="internal">
        <lane id=":J2_5_0" index="0" speed="6.13" length="9.06" shape="114.39,301.60 111.86,301.96 110.22,303.06 109.46,304.88 109.58,307.43"/>
    </edge>
    <edge id=":J2_6" function="internal">
        <lane id=":J2_6_0" index="0" speed="17.00" length="30.72" shape="114.39,301.60 83.67,301.60"/>
    </edge>
    <edge id=":J2_7" function="internal">
        <lane id=":J2_7_0" index="0" speed="13.14" length="6.74" shape="114.39,301.60 107.69,300.90"/>
    </edge>
    <edge id=":J2_17" function="internal">
        <lane id=":J2_17_0" index="0" speed="13.14" length="19.12" shape="107.69,300.90 107.29,300.85 101.36,298.61 96.61,294.88 93.03,289.64"/>
    </edge>
    <edge id=":J2_8" function="internal">
        <lane id=":J2_8_0" index="0" speed="11.75" length="20.55" shape="98.76,286.78 101.91,291.87 105.57,295.50 109.73,297.67 114.39,298.40"/>
    </edge>
    <edge id=":J2_9" function="internal">
        <lane id=":J2_9_0" index="0" speed="17.00" length="22.68" shape="98.76,286.78 102.03,292.17 105.02,296.17 107.59,300.63 109.58,307.43"/>
        <lane id=":J2_9_1" index="1" speed="17.00" length="22.68" shape="95.90,288.21 99.13,293.53 102.05,297.34 104.52,301.55 106.43,308.03"/>
        <lane id=":J2_9_2" index="2" speed="17.00" length="22.68" shape="95.90,288.21 98.65,293.68 100.50,297.78 101.90,302.21 103.29,308.64"/>
    </edge>
    <edge id=":J2_12" function="internal">
        <lane id=":J2_12_0" index="0" speed="8.83" length="4.05" shape="95.90,288.21 97.05,292.09"/>
    </edge>
    <edge id=":J2_18" function="internal">
        <lane id=":J2_18_0" index="0" speed="8.83" length="19.69" shape="97.05,292.09 97.64,294.07 96.19,298.25 91.53,300.76 83.67,301.60"/>
    </edge>
    <edge id=":J2_13" function="internal">
        <lane id=":J2_13_0" index="0" speed="5.74" length="9.18" shape="83.67,298.40 86.37,298.03 87.87,296.93 88.19,295.09 87.31,292.51"/>
    </edge>
    <edge id=":J2_14" function="internal">
        <lane id=":J2_14_0" index="0" speed="17.00" length="30.72" shape="83.67,298.40 114.39,298.40"/>
    </edge>
    <edge id=":J2_15" function="internal">
        <lane id=":J2_15_0" index="0" speed="11.07" length="8.00" shape="83.67,298.40 91.51,299.04 91.63,299.08"/>
    </edge>
    <edge id=":J2_19" function="internal">
        <lane id=":J2_19_0" index="0" speed="11.07" length="16.02" shape="91.63,299.08 97.40,300.96 101.33,304.16 103.29,308.64"/>
    </edge>
    <edge id=":J4_0" function="internal">
        <lane id=":J4_0_0" index="0" speed="17.00" length="12.18" shape="120.20,437.20 119.72,433.82 118.58,431.66 117.23,429.52 116.12,426.20"/>
        <lane id=":J4_0_1" index="1" speed="17.00" length="12.18" shape="123.40,437.20 122.92,433.64 121.77,431.35 120.40,429.09 119.26,425.59"/>
    </edge>
    <edge id=":J4_2" function="internal">
        <lane id=":J4_2_0" index="0" speed="9.32" length="3.05" shape="123.40,437.20 124.13,434.24"/>
    </edge>
    <edge id=":J4_8" function="internal">
        <lane id=":J4_8_0" index="0" speed="9.32" length="16.58" shape="124.13,434.24 124.35,433.35 127.20,430.60 131.95,428.95 138.60,428.40"/>
    </edge>
    <edge id=":J4_3" function="internal">
        <lane id=":J4_3_0" index="0" speed="6.51" length="9.03" shape="138.60,431.60 136.15,431.95 134.40,433.00 133.35,434.75 133.00,437.20"/>
    </edge>
    <edge id=":J4_4" function="internal">
        <lane id=":J4_4_0" index="0" speed="9.82" length="18.74" shape="138.60,431.60 131.99,431.19 127.09,429.95 123.90,427.88 122.41,424.99"/>
    </edge>
    <edge id=":J4_5" function="internal">
        <lane id=":J4_5_0" index="0" speed="7.11" length="9.39" shape="131.83,423.17 132.63,425.46 134.03,427.09 136.02,428.07 138.60,428.40"/>
    </edge>
    <edge id=":J4_6" function="internal">
        <lane id=":J4_6_0" index="0" speed="17.00" length="13.20" shape="128.69,423.78 129.40,427.72 129.72,430.44 129.81,433.19 129.80,437.20"/>
        <lane id=":J4_6_1" index="1" speed="17.00" length="13.20" shape="125.55,424.38 126.23,428.15 126.53,430.75 126.61,433.37 126.60,437.20"/>
    </edge>
    <edge id=":J5_0" function="internal">
        <lane id=":J5_0_0" index="0" speed="10.38" length="17.45" shape="138.60,528.00 133.33,528.47 129.13,529.87 126.02,532.20 123.98,535.46"/>
    </edge>
    <edge id=":J5_1" function="internal">
        <lane id=":J5_1_0" index="0" speed="17.00" length="30.70" shape="138.60,528.00 128.91,527.50 121.48,526.40 114.98,525.30 108.10,524.80"/>
        <lane id=":J5_1_1" index="1" speed="17.00" length="30.70" shape="138.60,524.80 128.91,524.30 121.48,523.20 114.98,522.10 108.10,521.60"/>
    </edge>
    <edge id=":J5_3" function="internal">
        <lane id=":J5_3_0" index="0" speed="9.84" length="6.30" shape="138.60,521.60 132.34,520.89"/>
    </edge>
    <edge id=":J5_16" function="internal">
        <lane id=":J5_16_0" index="0" speed="9.84" length="15.70" shape="132.34,520.89 131.95,520.85 127.20,518.60 124.35,514.85 123.40,509.60"/>
    </edge>
    <edge id=":J5_4" function="internal">
        <lane id=":J5_4_0" index="0" speed="6.51" length="9.03" shape="133.00,509.60 133.35,512.05 134.40,513.80 136.15,514.85 138.60,515.20"/>
    </edge>
    <edge id=":J5_5" function="internal">
        <lane id=":J5_5_0" index="0" speed="17.00" length="27.16" shape="133.00,509.60 132.11,518.11 129.89,524.18 126.96,529.43 123.98,535.46"/>
        <lane id=":J5_5_1" index="1" speed="17.00" length="27.16" shape="129.80,509.60 128.95,517.67 126.80,523.37 123.95,528.34 121.01,534.27"/>
    </edge>
    <edge id=":J5_7" function="internal">
        <lane id=":J5_7_0" index="0" speed="10.42" length="5.38" shape="126.60,509.60 125.44,514.85"/>
    </edge>
    <edge id=":J5_17" function="internal">
        <lane id=":J5_17_0" index="0" speed="10.42" length="19.44" shape="125.44,514.85 121.98,518.60 116.19,520.85 108.10,521.60"/>
    </edge>
    <edge id=":J5_8" function="internal">
        <lane id=":J5_8_0" index="0" speed="8.12" length="14.66" shape="108.10,515.20 113.39,514.85 117.18,513.80 119.44,512.05 120.20,509.60"/>
    </edge>
    <edge id=":J5_9" function="internal">
        <lane id=":J5_9_0" index="0" speed="17.00" length="30.50" shape="108.10,515.20 138.60,515.20"/>
        <lane id=":J5_9_1" index="1" speed="17.00" length="30.50" shape="108.10,518.40 138.60,518.40"/>
    </edge>
    <edge id=":J5_11" function="internal">
        <lane id=":J5_11_0" index="0" speed="9.45" length="8.84" shape="108.10,518.40 116.13,519.39 116.77,519.79"/>
    </edge>
    <edge id=":J5_18" function="internal">
        <lane id=":J5_18_0" index="0" speed="9.45" length="17.26" shape="116.77,519.79 120.96,522.37 122.59,527.33 121.01,534.27"/>
    </edge>
    <edge id=":J5_12" function="internal">
        <lane id=":J5_12_0" index="0" speed="5.84" length="9.13" shape="112.10,530.71 112.74,528.12 112.28,526.28 110.74,525.17 108.10,524.80"/>
    </edge>
    <edge id=":J5_13" function="internal">
        <lane id=":J5_13_0" index="0" speed="17.00" length="23.49" shape="112.10,530.71 115.14,524.39 117.72,519.97 119.52,515.64 120.20,509.60"/>
        <lane id=":J5_13_1" index="1" speed="17.00" length="23.49" shape="115.07,531.90 118.24,525.16 120.89,520.35 122.72,515.75 123.40,509.60"/>
    </edge>
    <edge id=":J5_15" function="internal">
        <lane id=":J5_15_0" index="0" speed="12.81" length="8.84" shape="118.04,533.09 121.53,526.66 122.61,525.58"/>
    </edge>
    <edge id=":J5_19" function="internal">
        <lane id=":J5_19_0" index="0" speed="12.81" length="18.13" shape="122.61,525.58 126.12,522.07 131.81,519.32 138.60,518.40"/>
    </edge>

    <edge id="-D0" from="J0" to="N0" priority="-1" length="100.00">
        <lane id="-D0_0" index="0" speed="17.00" length="100.00" shape="-4.80,-16.80 -4.80,-100.00"/>
        <lane id="-D0_1" index="1" speed="17.00" length="100.00" shape="-1.60,-16.80 -1.60,-100.00"/>
    </edge>
    <edge id="-D1" from="J0" to="N1" priority="-1" length="100.00">
        <lane id="-D1_0" index="0" speed="17.00" length="100.00" shape="-12.67,4.80 -100.00,4.80"/>
        <lane id="-D1_1" index="1" speed="17.00" length="100.00" shape="-12.67,1.60 -100.00,1.60"/>
    </edge>
    <edge id="-D15" from="J4" to="N7" priority="-1">
        <lane id="-D15_0" index="0" speed="17.00" length="16.40" shape="138.60,428.40 155.00,428.40"/>
    </edge>
    <edge id="-D19" from="J5" to="N8" priority="-1">
        <lane id="-D19_0" index="0" speed="17.00" length="33.10" shape="108.10,524.80 75.00,524.80"/>
        <lane id="-D19_1" index="1" speed="17.00" length="33.10" shape="108.10,521.60 75.00,521.60"/>
    </edge>
    <edge id="-D2" from="J0" to="N2" priority="-1" length="100.00">
        <lane id="-D2_0" index="0" speed="17.00" length="100.00" shape="13.60,-8.00 100.00,-8.00"/>
        <lane id="-D2_1" index="1" speed="17.00" length="100.00" shape="13.60,-4.80 100.00,-4.80"/>
        <lane id="-D2_2" index="2" speed="17.00" length="100.00" shape="13.60,-1.60 100.00,-1.60"/>
    </edge>
    <edge id="-D20" from="J5" to="N9" priority="-1">
        <lane id="-D20_0" index="0" speed="17.00" length="31.40" shape="138.60,515.20 170.00,515.20"/>
        <lane id="-D20_1" index="1" speed="17.00" length="31.40" shape="138.60,518.40 170.00,518.40"/>
    </edge>
    <edge id="-D3" from="J1" to="N3" priority="-1">
        <lane id="-D3_0" index="0" speed="17.00" length="35.20" shape="10.20,151.60 -25.00,151.60"/>
    </edge>
    <edge id="-D4" from="J1" to="N4" priority="-1" length="37.24">
        <lane id="-D4_0" index="0" speed="17.00" length="37.24" shape="37.76,148.40 75.00,148.40"/>
    </edge>
    <edge id="-D7" from="J2" to="N5" priority="-1">
        <lane id="-D7_0" index="0" speed="17.00" length="33.67" shape="83.67,301.60 50.00,301.60"/>
    </edge>
    <edge id="-D8" from="J2" to="N6" priority="-1">
        <lane id="-D8_0" index="0" speed="17.00" length="35.61" shape="114.39,298.40 150.00,298.40"/>
    </edge>
    <edge id="-M0" from="J1" to="J0" priority="-1" length="125.18">
        <lane id="-M0_0" index="0" speed="17.00" length="125.18" shape="15.12,139.39 -5.46,15.91"/>
        <lane id="-M0_1" index="1" speed="17.00" length="125.18" shape="18.28,138.87 -2.30,15.39"/>
        <lane id="-M0_2" index="2" speed="17.00" length="125.18" shape="21.43,138.34 0.85,14.86"/>
    </edge>
    <edge id="-M1" from="J2" to="J1" priority="-1">
        <lane id="-M1_0" index="0" speed="17.00" length="144.55" shape="87.31,292.51 22.66,163.22"/>
        <lane id="-M1_1" index="1" speed="17.00" length="144.55" shape="90.17,291.08 25.53,161.79"/>
        <lane id="-M1_2" index="2" speed="17.00" length="144.55" shape="93.03,289.64 28.39,160.36"/>
    </edge>
    <edge id="-M2" from="J4" to="J2" priority="-1">
        <lane id="-M2_0" index="0" speed="17.00" length="117.86" shape="116.12,426.20 93.86,310.45"/>
        <lane id="-M2_1" index="1" speed="17.00" length="117.86" shape="119.26,425.59 97.01,309.85"/>
        <lane id="-M2_2" index="2" speed="17.00" length="117.86" shape="122.41,424.99 100.15,309.24"/>
    </edge>
    <edge id="-M3" from="J5" to="J4" priority="-1">
        <lane id="-M3_0" index="0" speed="17.00" length="72.40" shape="120.20,509.60 120.20,437.20"/>
        <lane id="-M3_1" index="1" speed="17.00" length="72.40" shape="123.40,509.60 123.40,437.20"/>
    </edge>
    <edge id="D0" from="N0" to="J0" priority="-1" length="100.00">
        <lane id="D0_0" index="0" speed="17.00" length="100.00" shape="8.00,-100.00 8.00,-16.80"/>
        <lane id="D0_1" index="1" speed="17.00" length="100.00" shape="4.80,-100.00 4.80,-16.80"/>
        <lane id="D0_2" index="2" speed="17.00" length="100.00" shape="1.60,-100.00 1.60,-16.80"/>
    </edge>
    <edge id="D1" from="N1" to="J0" priority="-1" length="100.00">
        <lane id="D1_0" index="0" speed="17.00" length="100.00" shape="-100.00,-11.20 -12.67,-11.20"/>
        <lane id="D1_1" index="1" speed="17.00" length="100.00" shape="-100.00,-8.00 -12.67,-8.00"/>
        <lane id="D1_2" index="2" speed="17.00" length="100.00" shape="-100.00,-4.80 -12.67,-4.80"/>
        <lane id="D1_3" index="3" speed="17.00" length="100.00" shape="-100.00,-1.60 -12.67,-1.60"/>
    </edge>
    <edge id="D15" from="N7" to="J4" priority="-1">
        <lane id="D15_0" index="0" speed="17.00" length="16.40" shape="155.00,431.60 138.60,431.60"/>
    </edge>
    <edge id="D19" from="N8" to="J5" priority="-1">
        <lane id="D19_0" index="0" speed="17.00" length="33.10" shape="75.00,515.20 108.10,515.20"/>
        <lane id="D19_1" index="1" speed="17.00" length="33.10" shape="75.00,518.40 108.10,518.40"/>
    </edge>
    <edge id="D2" from="N2" to="J0" priority="-1" length="100.00">
        <lane id="D2_0" index="0" speed="17.00" length="100.00" shape="100.00,8.00 13.60,8.00"/>
        <lane id="D2_1" index="1" speed="17.00" length="100.00" shape="100.00,4.80 13.60,4.80"/>
        <lane id="D2_2" index="2" speed="17.00" length="100.00" shape="100.00,1.60 13.60,1.60"/>
    </edge>
    <edge id="D20" from="N9" to="J5" priority="-1">
        <lane id="D20_0" index="0" speed="17.00" length="31.40" shape="170.00,528.00 138.60,528.00"/>
        <lane id="D20_1" index="1" speed="17.00" length="31.40" shape="170.00,524.80 138.60,524.80"/>
        <lane id="D20_2" index="2" speed="17.00" length="31.40" shape="170.00,521.60 138.60,521.60"/>
    </edge>
    <edge id="D21" from="N10" to="J5" priority="-1">
        <lane id="D21_0" index="0" speed="17.00" length="12.19" shape="107.57,542.03 112.10,530.71"/>
        <lane id="D21_1" index="1" speed="17.00" length="12.19" shape="110.54,543.22 115.07,531.90"/>
        <lane id="D21_2" index="2" speed="17.00" length="12.19" shape="113.51,544.41 118.04,533.09"/>
    </edge>
    <edge id="D3" from="N3" to="J1" priority="-1" length="35.20">
        <lane id="D3_0" index="0" speed="17.00" length="35.20" shape="-25.00,145.20 10.20,145.20"/>
        <lane id="D3_1" index="1" speed="17.00" length="35.20" shape="-25.00,148.40 10.20,148.40"/>
    </edge>
    <edge id="D4" from="N4" to="J1" priority="-1" length="37.24">
        <lane id="D4_0" index="0" speed="17.00" length="37.24" shape="75.00,151.60 37.76,151.60"/>
    </edge>
    <edge id="D7" from="N5" to="J2" priority="-1">
        <lane id="D7_0" index="0" speed="17.00" length="33.67" shape="50.00,298.40 83.67,298.40"/>
    </edge>
    <edge id="D8" from="N6" to="J2" priority="-1">
        <lane id="D8_0" index="0" speed="17.00" length="35.61" shape="150.00,301.60 114.39,301.60"/>
    </edge>
    <edge id="E43" from="J5" to="N10" priority="-1">
        <lane id="E43_0" index="0" speed="17.00" length="12.19" shape="123.98,535.46 119.46,546.78"/>
        <lane id="E43_1" index="1" speed="17.00" length="12.19" shape="121.01,534.27 116.49,545.59"/>
    </edge>
    <edge id="M0" from="J0" to="J1" priority="-1" length="125.18">
        <lane id="M0_0" index="0" speed="17.00" length="125.18" shape="7.17,13.81 27.75,137.29"/>
        <lane id="M0_1" index="1" speed="17.00" length="125.18" shape="4.01,14.33 24.59,137.81"/>
    </edge>
    <edge id="M1" from="J1" to="J2" priority="-1">
        <lane id="M1_0" index="0" speed="17.00" length="144.55" shape="34.11,157.49 98.76,286.78"/>
        <lane id="M1_1" index="1" speed="17.00" length="144.55" shape="31.25,158.92 95.90,288.21"/>
    </edge>
    <edge id="M2" from="J2" to="J4" priority="-1">
        <lane id="M2_0" index="0" speed="17.00" length="117.86" shape="109.58,307.43 131.83,423.17"/>
        <lane id="M2_1" index="1" speed="17.00" length="117.86" shape="106.43,308.03 128.69,423.78"/>
        <lane id="M2_2" index="2" speed="17.00" length="117.86" shape="103.29,308.64 125.55,424.38"/>
    </edge>
    <edge id="M3" from="J4" to="J5" priority="-1">
        <lane id="M3_0" index="0" speed="17.00" length="72.40" shape="133.00,437.20 133.00,509.60"/>
        <lane id="M3_1" index="1" speed="17.00" length="72.40" shape="129.80,437.20 129.80,509.60"/>
        <lane id="M3_2" index="2" speed="17.00" length="72.40" shape="126.60,437.20 126.60,509.60"/>
    </edge>

    <tlLogic id="J0" type="static" programID="0" offset="0">
        <phase duration="33" state="grrrGGGggrrrGGGGg"/>
        <phase duration="3"  state="GrrrGyyyGrrrGyyyy"/>
        <phase duration="33" state="GGGggrrrGGGggrrrr"/>
        <phase duration="3"  state="GyyyGrrrGyyyGrrrr"/>
    </tlLogic>
    <tlLogic id="J1" type="static" programID="0" offset="0">
        <phase duration="36" state="GGGGggrrGGGggrr"/>
        <phase duration="4"  state="GyyyyGrrGyyyGrr"/>
        <phase duration="36" state="grrrrGGggrrrGGg"/>
        <phase duration="4"  state="GrrrrGyyGrrrGyy"/>
    </tlLogic>
    <tlLogic id="J2" type="static" programID="0" offset="0">
        <phase duration="42" state="GGGGggrrGGGGggrr"/>
        <phase duration="3"  state="GyyyyGrrGyyyyGrr"/>
        <phase duration="42" state="grrrrGGggrrrrGGg"/>
        <phase duration="3"  state="GrrrrGyyGrrrrGyy"/>
    </tlLogic>
    <tlLogic id="J4" type="static" programID="0" offset="0">
        <phase duration="41" state="GGgGrGGG"/>
        <phase duration="4"  state="yyyGrGyy"/>
        <phase duration="41" state="rrrGGGrr"/>
        <phase duration="4"  state="rrrGyGrr"/>
    </tlLogic>
    <tlLogic id="J5" type="static" programID="0" offset="0">
        <phase duration="33" state="grrrGGGggrrrGGGg"/>
        <phase duration="3"  state="GrrrGyyyGrrrGyyy"/>
        <phase duration="33" state="GGGggrrrGGGggrrr"/>
        <phase duration="3"  state="GyyyGrrrGyyyGrrr"/>
    </tlLogic>

    <junction id="J0" type="traffic_light" x="0.00" y="0.00" incLanes="-M0_0 -M0_1 -M0_2 D2_0 D2_1 D2_2 D0_0 D0_1 D0_2 D1_0 D1_1 D1_2 D1_3" intLanes=":J0_0_0 :J0_1_0 :J0_1_1 :J0_17_0 :J0_4_0 :J0_5_0 :J0_5_1 :J0_18_0 :J0_8_0 :J0_9_0 :J0_9_1 :J0_19_0 :J0_12_0 :J0_13_0 :J0_13_1 :J0_13_2 :J0_20_0" shape="-7.04,16.18 8.75,13.55 8.99,11.35 9.63,10.59 10.61,10.04 11.93,9.71 13.60,9.60 13.60,-9.60 11.38,-10.40 10.60,-11.40 10.04,-12.80 9.71,-14.60 9.60,-16.80 -6.40,-16.80 -7.10,-14.58 -7.97,-13.80 -9.18,-13.24 -10.75,-12.91 -12.67,-12.80 -12.67,6.40 -10.26,7.49 -9.26,8.84 -8.39,10.74 -7.65,13.19">
        <request index="0"  response="00000000001100000" foes="00000000001100000" cont="0"/>
        <request index="1"  response="11111000011100000" foes="11111100011100000" cont="0"/>
        <request index="2"  response="11111000011100000" foes="11111100011100000" cont="0"/>
        <request index="3"  response="11110011011100000" foes="11110011011100000" cont="1"/>
        <request index="4"  response="00000000000000000" foes="00000011000000000" cont="0"/>
        <request index="5"  response="00000100000001000" foes="10000111000001111" cont="0"/>
        <request index="6"  response="00000100000001000" foes="10000111000001111" cont="0"/>
        <request index="7"  response="01110100000001000" foes="01110111000001110" cont="1"/>
        <request index="8"  response="01110000000000000" foes="01110000000000000" cont="0"/>
        <request index="9"  response="11110000011110000" foes="11110000011111000" cont="0"/>
        <request index="10" response="11110000011110000" foes="11110000011111000" cont="0"/>
        <request index="11" response="11110000011100110" foes="11110000011100110" cont="1"/>
        <request index="12" response="00000000000000000" foes="00000000000000110" cont="0"/>
        <request index="13" response="00000100000001000" foes="00000111110001110" cont="0"/>
        <request index="14" response="00000100000001000" foes="00000111110001110" cont="0"/>
        <request index="15" response="00000100000001000" foes="00000111110001110" cont="0"/>
        <request index="16" response="00000100001101000" foes="00000111001101110" cont="1"/>
    </junction>
    <junction id="J1" type="traffic_light" x="25.00" y="150.00" incLanes="-M1_0 -M1_1 -M1_2 D4_0 M0_0 M0_1 D3_0 D3_1" intLanes=":J1_0_0 :J1_1_0 :J1_1_1 :J1_1_2 :J1_15_0 :J1_5_0 :J1_6_0 :J1_16_0 :J1_8_0 :J1_9_0 :J1_9_1 :J1_17_0 :J1_12_0 :J1_13_0 :J1_18_0" shape="21.23,163.93 35.54,156.78 34.99,154.79 35.20,154.09 35.73,153.60 36.58,153.30 37.76,153.20 37.76,146.80 35.63,146.53 33.80,145.71 32.25,144.36 30.99,142.46 30.01,140.01 29.33,137.02 13.54,139.65 13.46,141.85 13.04,142.61 12.35,143.16 11.40,143.49 10.20,143.60 10.20,153.20 13.94,154.39 15.79,155.88 17.62,157.97 19.44,160.65">
        <request index="0"  response="000000000000000" foes="000100001000000" cont="0"/>
        <request index="1"  response="100000010000000" foes="111100011000000" cont="0"/>
        <request index="2"  response="100000010000000" foes="111100011000000" cont="0"/>