<?xml version="1.0" encoding="UTF-8"?>

<!-- generated on 2025-04-25 15:45:15 by Eclipse SUMO netedit Version 1.22.0
<neteditConfiguration xmlns:xsi="http://www.w3.org/2001/XMLSchema-instance" xsi:noNamespaceSchemaLocation="http://sumo.dlr.de/xsd/neteditConfiguration.xsd">

    <input>
        <sumo-net-file value="D:\Nottingham Year3\Spring\COMP-3071 Design Intelligent Agents\Coursework\netfile\THRNET.net.xml"/>
    </input>

    <output>
        <output-file value="D:\Nottingham Year3\Spring\COMP-3071 Design Intelligent Agents\Coursework\netfile\THRNET.net.xml"/>
    </output>

    <processing>
        <geometry.min-radius.fix.railways value="false"/>
        <geometry.max-grade.fix value="false"/>
        <offset.disable-normalization value="true"/>
        <lefthand value="0"/>
    </processing>

    <junctions>
        <no-turnarounds value="true"/>
        <junctions.corner-detail value="5"/>
        <junctions.limit-turn-speed value="5.50"/>
        <rectangular-lane-cut value="0"/>
    </junctions>

    <pedestrian>
        <walkingareas value="0"/>
    </pedestrian>

</neteditConfiguration>
-->

<net version="1.20" junctionCornerDetail="5" limitTurnSpeed="5.50" xmlns:xsi="http://www.w3.org/2001/XMLSchema-instance" xsi:noNamespaceSchemaLocation="http://sumo.dlr.de/xsd/net_file.xsd">

    <location netOffset="0.00,0.00" convBoundary="-250.00,-150.00,150.00,50.00" origBoundary="-10000000000.00,-10000000000.00,10000000000.00,10000000000.00" projParameter="!"/>

    <edge id=":J0_0" function="internal">
        <lane id=":J0_0_0" index="0" speed="6.51" length="9.03" shape="-208.00,13.60 -208.35,11.15 -209.40,9.40 -211.15,8.35 -213.60,8.00"/>
    </edge>
    <edge id=":J0_1" function="internal">
        <lane id=":J0_1_0" index="0" speed="13.89" length="30.40" shape="-208.00,13.60 -208.00,-16.80"/>
        <lane id=":J0_1_1" index="1" speed="13.89" length="30.40" shape="-204.80,13.60 -204.80,-16.80"/>
        <lane id=":J0_1_2" index="2" speed="13.89" length="30.40" shape="-201.60,13.60 -201.60,-16.80"/>
    </edge>
    <edge id=":J0_4" function="internal">
        <lane id=":J0_4_0" index="0" speed="10.36" length="5.01" shape="-201.60,13.60 -200.89,8.64"/>
    </edge>
    <edge id=":J0_20" function="internal">
        <lane id=":J0_20_0" index="0" speed="10.36" length="19.50" shape="-200.89,8.64 -200.65,6.95 -197.80,2.20 -193.05,-0.65 -186.40,-1.60"/>
    </edge>
    <edge id=":J0_5" function="internal">
        <lane id=":J0_5_0" index="0" speed="6.51" length="9.03" shape="-186.40,8.00 -188.85,8.35 -190.60,9.40 -191.65,11.15 -192.00,13.60"/>
    </edge>
    <edge id=":J0_6" function="internal">
        <lane id=":J0_6_0" index="0" speed="13.89" length="27.20" shape="-186.40,8.00 -213.60,8.00"/>
        <lane id=":J0_6_1" index="1" speed="13.89" length="27.20" shape="-186.40,4.80 -213.60,4.80"/>
        <lane id=":J0_6_2" index="2" speed="13.89" length="27.20" shape="-186.40,1.60 -213.60,1.60"/>
    </edge>
    <edge id=":J0_9" function="internal">
        <lane id=":J0_9_0" index="0" speed="10.88" length="6.39" shape="-186.40,1.60 -192.70,0.51"/>
    </edge>
    <edge id=":J0_21" function="internal">
        <lane id=":J0_21_0" index="0" speed="10.88" length="20.75" shape="-192.70,0.51 -193.05,0.45 -197.80,-3.00 -200.65,-8.75 -201.60,-16.80"/>
    </edge>
    <edge id=":J0_10" function="internal">
        <lane id=":J0_10_0" index="0" speed="7.33" length="11.73" shape="-192.00,-16.80 -191.65,-12.95 -190.60,-10.20 -188.85,-8.55 -186.40,-8.00"/>
    </edge>
    <edge id=":J0_11" function="internal">
        <lane id=":J0_11_0" index="0" speed="13.89" length="30.40" shape="-192.00,-16.80 -192.00,13.60"/>
        <lane id=":J0_11_1" index="1" speed="13.89" length="30.40" shape="-195.20,-16.80 -195.20,13.60"/>
        <lane id=":J0_11_2" index="2" speed="13.89" length="30.40" shape="-198.40,-16.80 -198.40,13.60"/>
    </edge>
    <edge id=":J0_14" function="internal">
        <lane id=":J0_14_0" index="0" speed="10.88" length="6.03" shape="-198.40,-16.80 -199.11,-10.82"/>
    </edge>
    <edge id=":J0_22" function="internal">
        <lane id=":J0_22_0" index="0" speed="10.88" length="21.12" shape="-199.11,-10.82 -199.35,-8.75 -202.20,-3.00 -206.95,0.45 -213.60,1.60"/>
    </edge>
    <edge id=":J0_15" function="internal">
        <lane id=":J0_15_0" index="0" speed="6.51" length="9.03" shape="-213.60,-11.20 -211.15,-11.55 -209.40,-12.60 -208.35,-14.35 -208.00,-16.80"/>
    </edge>
    <edge id=":J0_16" function="internal">
        <lane id=":J0_16_0" index="0" speed="13.89" length="27.45" shape="-213.60,-11.20 -205.50,-10.70 -200.00,-9.60 -194.50,-8.50 -186.40,-8.00"/>
        <lane id=":J0_16_1" index="1" speed="13.89" length="27.45" shape="-213.60,-8.00 -205.50,-7.50 -200.00,-6.40 -194.50,-5.30 -186.40,-4.80"/>
        <lane id=":J0_16_2" index="2" speed="13.89" length="27.45" shape="-213.60,-4.80 -205.50,-4.30 -200.00,-3.20 -194.50,-2.10 -186.40,-1.60"/>
    </edge>
    <edge id=":J0_19" function="internal">
        <lane id=":J0_19_0" index="0" speed="10.36" length="5.01" shape="-213.60,-1.60 -208.64,-0.89"/>
    </edge>
    <edge id=":J0_23" function="internal">
        <lane id=":J0_23_0" index="0" speed="10.36" length="19.50" shape="-208.64,-0.89 -206.95,-0.65 -202.20,2.20 -199.35,6.95 -198.40,13.60"/>
    </edge>
    <edge id=":J1_0" function="internal">
        <lane id=":J1_0_0" index="0" speed="8.10" length="14.57" shape="-101.60,13.60 -102.35,11.15 -104.60,9.40 -108.35,8.35 -113.60,8.00"/>
    </edge>
    <edge id=":J1_1" function="internal">
        <lane id=":J1_1_0" index="0" speed="13.89" length="27.57" shape="-101.60,13.60 -102.60,9.21 -104.80,3.36 -107.00,-4.16 -108.00,-13.60"/>
        <lane id=":J1_1_1" index="1" speed="13.89" length="27.57" shape="-101.60,13.60 -102.10,9.17 -103.20,3.26 -104.30,-4.28 -104.80,-13.60"/>
        <lane id=":J1_1_2" index="2" speed="13.89" length="27.57" shape="-101.60,13.60 -101.60,-13.60"/>
    </edge>
    <edge id=":J1_4" function="internal">
        <lane id=":J1_4_0" index="0" speed="10.36" length="5.01" shape="-101.60,13.60 -100.89,8.64"/>
    </edge>
    <edge id=":J1_20" function="internal">
        <lane id=":J1_20_0" index="0" speed="10.36" length="19.50" shape="-100.89,8.64 -100.65,6.95 -97.80,2.20 -93.05,-0.65 -86.40,-1.60"/>
    </edge>
    <edge id=":J1_5" function="internal">
        <lane id=":J1_5_0" index="0" speed="7.33" length="11.73" shape="-86.40,4.80 -88.85,5.35 -90.60,7.00 -91.65,9.75 -92.00,13.60"/>
    </edge>
    <edge id=":J1_6" function="internal">
        <lane id=":J1_6_0" index="0" speed="13.89" length="27.36" shape="-86.40,4.80 -92.94,5.30 -98.61,6.40 -104.98,7.50 -113.60,8.00"/>
        <lane id=":J1_6_1" index="1" speed="13.89" length="27.36" shape="-86.40,1.60 -92.94,2.10 -98.61,3.20 -104.98,4.30 -113.60,4.80"/>
        <lane id=":J1_6_2" index="2" speed="13.89" length="27.36" shape="-86.40,1.60 -113.60,1.60"/>
    </edge>
    <edge id=":J1_9" function="internal">
        <lane id=":J1_9_0" index="0" speed="10.36" length="5.01" shape="-86.40,1.60 -91.36,0.89"/>
    </edge>
    <edge id=":J1_21" function="internal">
        <lane id=":J1_21_0" index="0" speed="10.36" length="19.50" shape="-91.36,0.89 -93.05,0.65 -97.80,-2.20 -100.65,-6.95 -101.60,-13.60"/>
    </edge>
    <edge id=":J1_10" function="internal">
        <lane id=":J1_10_0" index="0" speed="7.33" length="11.73" shape="-95.20,-13.60 -94.65,-11.15 -93.00,-9.40 -90.25,-8.35 -86.40,-8.00"/>
    </edge>
    <edge id=":J1_11" function="internal">
        <lane id=":J1_11_0" index="0" speed="13.89" length="27.36" shape="-95.20,-13.60 -94.70,-7.06 -93.60,-1.39 -92.50,4.98 -92.00,13.60"/>
        <lane id=":J1_11_1" index="1" speed="13.89" length="27.36" shape="-98.40,-13.60 -97.90,-7.06 -96.80,-1.39 -95.70,4.98 -95.20,13.60"/>
        <lane id=":J1_11_2" index="2" speed="13.89" length="27.36" shape="-98.40,-13.60 -98.40,13.60"/>
    </edge>
    <edge id=":J1_14" function="internal">
        <lane id=":J1_14_0" index="0" speed="10.36" length="5.01" shape="-98.40,-13.60 -99.11,-8.64"/>
    </edge>
    <edge id=":J1_22" function="internal">
        <lane id=":J1_22_0" index="0" speed="10.36" length="19.50" shape="-99.11,-8.64 -99.35,-6.95 -102.20,-2.20 -106.95,0.65 -113.60,1.60"/>
    </edge>
    <edge id=":J1_15" function="internal">
        <lane id=":J1_15_0" index="0" speed="6.51" length="9.03" shape="-113.60,-8.00 -111.15,-8.35 -109.40,-9.40 -108.35,-11.15 -108.00,-13.60"/>
    </edge>
    <edge id=":J1_16" function="internal">
        <lane id=":J1_16_0" index="0" speed="13.89" length="27.20" shape="-113.60,-8.00 -86.40,-8.00"/>
        <lane id=":J1_16_1" index="1" speed="13.89" length="27.20" shape="-113.60,-4.80 -86.40,-4.80"/>
        <lane id=":J1_16_2" index="2" speed="13.89" length="27.20" shape="-113.60,-1.60 -86.40,-1.60"/>
    </edge>
    <edge id=":J1_19" function="internal">
        <lane id=":J1_19_0" index="0" speed="10.36" length="5.01" shape="-113.60,-1.60 -108.64,-0.89"/>
    </edge>
    <edge id=":J1_23" function="internal">
        <lane id=":J1_23_0" index="0" speed="10.36" length="19.50" shape="-108.64,-0.89 -106.95,-0.65 -102.20,2.20 -99.35,6.95 -98.40,13.60"/>
    </edge>
    <edge id=":J2_0" function="internal">
        <lane id=":J2_0_0" index="0" speed="6.51" length="9.03" shape="-8.00,-86.40 -8.35,-88.85 -9.40,-90.60 -11.15,-91.65 -13.60,-92.00"/>
    </edge>
    <edge id=":J2_1" function="internal">
        <lane id=":J2_1_0" index="0" speed="13.89" length="27.20" shape="-8.00,-86.40 -8.00,-113.60"/>
        <lane id=":J2_1_1" index="1" speed="13.89" length="27.20" shape="-4.80,-86.40 -4.80,-113.60"/>
        <lane id=":J2_1_2" index="2" speed="13.89" length="27.20" shape="-1.60,-86.40 -1.60,-113.60"/>
    </edge>
    <edge id=":J2_4" function="internal">
        <lane id=":J2_4_0" index="0" speed="9.32" length="7.05" shape="-1.60,-86.40 -1.05,-93.05 -0.92,-93.41"/>
    </edge>
    <edge id=":J2_18" function="internal">
        <lane id=":J2_18_0" index="0" speed="9.32" length="12.57" shape="-0.92,-93.41 0.60,-97.80 3.35,-100.65 7.20,-101.60"/>
    </edge>
    <edge id=":J2_5" function="internal">
        <lane id=":J2_5_0" index="0" speed="7.33" length="11.73" shape="7.20,-95.20 4.75,-94.65 3.00,-93.00 1.95,-90.25 1.60,-86.40"/>
    </edge>
    <edge id=":J2_6" function="internal">
        <lane id=":J2_6_0" index="0" speed="13.89" length="21.01" shape="7.20,-95.20 1.21,-94.70 -3.00,-93.60 -7.32,-92.50 -13.60,-92.00"/>
        <lane id=":J2_6_1" index="1" speed="13.89" length="21.01" shape="7.20,-98.40 1.21,-97.90 -3.00,-96.80 -7.32,-95.70 -13.60,-95.20"/>
        <lane id=":J2_6_2" index="2" speed="13.89" length="21.01" shape="7.20,-98.40 -13.60,-98.40"/>
    </edge>
    <edge id=":J2_9" function="internal">
        <lane id=":J2_9_0" index="0" speed="9.32" length="3.03" shape="7.20,-98.40 4.26,-99.13"/>
    </edge>
    <edge id=":J2_19" function="internal">
        <lane id=":J2_19_0" index="0" speed="9.32" length="16.60" shape="4.26,-99.13 3.35,-99.35 0.60,-102.20 -1.05,-106.95 -1.60,-113.60"/>
    </edge>
    <edge id=":J2_10" function="internal">
        <lane id=":J2_10_0" index="0" speed="6.51" length="9.03" shape="1.60,-113.60 1.95,-111.15 3.00,-109.40 4.75,-108.35 7.20,-108.00"/>
    </edge>
    <edge id=":J2_11" function="internal">
        <lane id=":J2_11_0" index="0" speed="13.89" length="27.20" shape="1.60,-113.60 1.60,-86.40"/>
    </edge>
    <edge id=":J2_12" function="internal">
        <lane id=":J2_12_0" index="0" speed="10.36" length="5.01" shape="1.60,-113.60 0.89,-108.64"/>
    </edge>
    <edge id=":J2_20" function="internal">
        <lane id=":J2_20_0" index="0" speed="10.36" length="19.50" shape="0.89,-108.64 0.65,-106.95 -2.20,-102.20 -6.95,-99.35 -13.60,-98.40"/>
    </edge>
    <edge id=":J2_13" function="internal">
        <lane id=":J2_13_0" index="0" speed="8.10" length="14.57" shape="-13.60,-101.60 -11.15,-102.35 -9.40,-104.60 -8.35,-108.35 -8.00,-113.60"/>
    </edge>
    <edge id=":J2_14" function="internal">
        <lane id=":J2_14_0" index="0" speed="13.89" length="21.28" shape="-13.60,-101.60 -9.77,-102.60 -5.41,-104.80 0.06,-107.00 7.20,-108.00"/>
        <lane id=":J2_14_1" index="1" speed="13.89" length="21.28" shape="-13.60,-101.60 -9.72,-102.10 -5.27,-103.20 0.21,-104.30 7.20,-104.80"/>
        <lane id=":J2_14_2" index="2" speed="13.89" length="21.28" shape="-13.60,-101.60 7.20,-101.60"/>
    </edge>
    <edge id=":J2_17" function="internal">
        <lane id=":J2_17_0" index="0" speed="10.36" length="5.01" shape="-13.60,-101.60 -8.64,-100.89"/>
    </edge>
    <edge id=":J2_21" function="internal">
        <lane id=":J2_21_0" index="0" speed="10.36" length="19.50" shape="-8.64,-100.89 -6.95,-100.65 -2.20,-97.80 0.65,-93.05 1.60,-86.40"/>
    </edge>
    <edge id=":J4_0" function="internal">
        <lane id=":J4_0_0" index="0" speed="13.89" length="20.80" shape="7.20,4.80 -13.60,4.80"/>
        <lane id=":J4_0_1" index="1" speed="13.89" length="20.80" shape="7.20,1.60 -13.60,1.60"/>
    </edge>
    <edge id=":J4_2" function="internal">
        <lane id=":J4_2_0" index="0" speed="9.84" length="4.01" shape="7.20,1.60 3.25,0.89"/>
        <lane id=":J4_2_1" index="1" speed="9.32" length="3.03" shape="7.20,1.60 4.26,0.87"/>
    </edge>
    <edge id=":J4_10" function="internal">
        <lane id=":J4_10_0" index="0" speed="9.84" length="17.98" shape="3.25,0.89 1.95,0.65 -1.80,-2.20 -4.05,-6.95 -4.80,-13.60"/>
        <lane id=":J4_10_1" index="0" speed="9.32" length="16.60" shape="4.26,0.87 3.35,0.65 0.60,-2.20 -1.05,-6.95 -1.60,-13.60"/>
    </edge>
    <edge id=":J4_4" function="internal">
        <lane id=":J4_4_0" index="0" speed="6.51" length="9.03" shape="1.60,-13.60 1.95,-11.15 3.00,-9.40 4.75,-8.35 7.20,-8.00"/>
    </edge>
    <edge id=":J4_5" function="internal">
        <lane id=":J4_5_0" index="0" speed="10.36" length="24.51" shape="1.60,-13.60 0.65,-6.95 -2.20,-2.20 -6.95,0.65 -13.60,1.60"/>
    </edge>
    <edge id=":J4_6" function="internal">
        <lane id=":J4_6_0" index="0" speed="6.51" length="9.03" shape="-13.60,-8.00 -11.15,-8.35 -9.40,-9.40 -8.35,-11.15 -8.00,-13.60"/>
    </edge>
    <edge id=":J4_7" function="internal">
        <lane id=":J4_7_0" index="0" speed="13.89" length="20.80" shape="-13.60,-8.00 7.20,-8.00"/>
        <lane id=":J4_7_1" index="1" speed="13.89" length="20.80" shape="-13.60,-4.80 7.20,-4.80"/>
        <lane id=":J4_7_2" index="2" speed="13.89" length="20.80" shape="-13.60,-1.60 7.20,-1.60"/>
    </edge>
    <edge id=":J5_0" function="internal">
        <lane id=":J5_0_0" index="0" speed="7.33" length="11.73" shape="92.00,13.60 91.65,9.75 90.60,7.00 88.85,5.35 86.40,4.80"/>
    </edge>
    <edge id=":J5_1" function="internal">
        <lane id=":J5_1_0" index="0" speed="13.89" length="27.20" shape="92.00,13.60 92.00,-13.60"/>
        <lane id=":J5_1_1" index="1" speed="13.89" length="27.20" shape="95.20,13.60 95.20,-13.60"/>
        <lane id=":J5_1_2" index="2" speed="13.89" length="27.20" shape="98.40,13.60 98.40,-13.60"/>
    </edge>
    <edge id=":J5_4" function="internal">
        <lane id=":J5_4_0" index="0" speed="10.36" length="5.01" shape="98.40,13.60 99.11,8.64"/>
    </edge>
    <edge id=":J5_19" function="internal">
        <lane id=":J5_19_0" index="0" speed="10.36" length="19.50" shape="99.11,8.64 99.35,6.95 102.20,2.20 106.95,-0.65 113.60,-1.60"/>
    </edge>
    <edge id=":J5_5" function="internal">
        <lane id=":J5_5_0" index="0" speed="6.51" length="9.03" shape="113.60,8.00 111.15,8.35 109.40,9.40 108.35,11.15 108.00,13.60"/>
    </edge>
    <edge id=":J5_6" function="internal">
        <lane id=":J5_6_0" index="0" speed="13.89" length="27.43" shape="113.60,8.00 104.98,7.50 98.61,6.40 92.94,5.30 86.40,4.80"/>
        <lane id=":J5_6_1" index="1" speed="13.89" length="27.43" shape="113.60,4.80 104.98,4.30 98.61,3.20 92.94,2.10 86.40,1.60"/>
    </edge>
    <edge id=":J5_8" function="internal">
        <lane id=":J5_8_0" index="0" speed="10.36" length="5.01" shape="113.60,1.60 108.64,0.89"/>
    </edge>
    <edge id=":J5_20" function="internal">
        <lane id=":J5_20_0" index="0" speed="10.36" length="19.50" shape="108.64,0.89 106.95,0.65 102.20,-2.20 99.35,-6.95 98.40,-13.60"/>
    </edge>
    <edge id=":J5_9" function="internal">
        <lane id=":J5_9_0" index="0" speed="7.33" length="11.73" shape="104.80,-13.60 105.35,-11.15 107.00,-9.40 109.75,-8.35 113.60,-8.00"/>
    </edge>
    <edge id=":J5_10" function="internal">
        <lane id=":J5_10_0" index="0" speed="13.89" length="27.36" shape="104.80,-13.60 105.30,-7.06 106.40,-1.39 107.50,4.98 108.00,13.60"/>
        <lane id=":J5_10_1" index="1" speed="13.89" length="27.36" shape="101.60,-13.60 102.10,-7.06 103.20,-1.39 104.30,4.98 104.80,13.60"/>
        <lane id=":J5_10_2" index="2" speed="13.89" length="27.36" shape="101.60,-13.60 101.60,13.60"/>
    </edge>
    <edge id=":J5_13" function="internal">
        <lane id=":J5_13_0" index="0" speed="10.36" length="5.01" shape="101.60,-13.60 100.89,-8.64"/>
    </edge>
    <edge id=":J5_21" function="internal">
        <lane id=":J5_21_0" index="0" speed="10.36" length="19.50" shape="100.89,-8.64 100.65,-6.95 97.80,-2.20 93.05,0.65 86.40,1.60"/>
    </edge>
    <edge id=":J5_14" function="internal">
        <lane id=":J5_14_0" index="0" speed="6.51" length="9.03" shape="86.40,-8.00 88.85,-8.35 90.60,-9.40 91.65,-11.15 92.00,-13.60"/>
    </edge>
    <edge id=":J5_15" function="internal">
        <lane id=":J5_15_0" index="0" speed="13.89" length="27.20" shape="86.40,-8.00 113.60,-8.00"/>
        <lane id=":J5_15_1" index="1" speed="13.89" length="27.20" shape="86.40,-4.80 113.60,-4.80"/>
        <lane id=":J5_15_2" index="2" speed="13.89" length="27.20" shape="86.40,-1.60 113.60,-1.60"/>
    </edge>
    <edge id=":J5_18" function="internal">
        <lane id=":J5_18_0" index="0" speed="10.36" length="7.16" shape="86.40,-1.60 93.05,-0.65 93.43,-0.42"/>
    </edge>
    <edge id=":J5_22" function="internal">
        <lane id=":J5_22_0" index="0" speed="10.36" length="17.36" shape="93.43,-0.42 97.80,2.20 100.65,6.95 101.60,13.60"/>
    </edge>

    <edge id="-E0" from="J0" to="J1" priority="-1">
        <lane id="-E0_0" index="0" speed="13.89" length="72.80" shape="-186.40,-8.00 -113.60,-8.00"/>
        <lane id="-E0_1" index="1" speed="13.89" length="72.80" shape="-186.40,-4.80 -113.60,-4.80"/>
        <lane id="-E0_2" index="2" speed="13.89" length="72.80" shape="-186.40,-1.60 -113.60,-1.60"/>
    </edge>
    <edge id="-E1" from="J1" to="J4" priority="-1">
        <lane id="-E1_0" index="0" speed="13.89" length="72.80" shape="-86.40,-8.00 -13.60,-8.00"/>
        <lane id="-E1_1" index="1" speed="13.89" length="72.80" shape="-86.40,-4.80 -13.60,-4.80"/>
        <lane id="-E1_2" index="2" speed="13.89" length="72.80" shape="-86.40,-1.60 -13.60,-1.60"/>
    </edge>
    <edge id="-E2" from="J2" to="J4" priority="-1">
        <lane id="-E2_0" index="0" speed="13.89" length="72.80" shape="1.60,-86.40 1.60,-13.60"/>
    </edge>
    <edge id="-E3" from="J4" to="J5" priority="-1">
        <lane id="-E3_0" index="0" speed="13.89" length="79.20" shape="7.20,-8.00 86.40,-8.00"/>
        <lane id="-E3_1" index="1" speed="13.89" length="79.20" shape="7.20,-4.80 86.40,-4.80"/>
        <lane id="-E3_2" index="2" speed="13.89" length="79.20" shape="7.20,-1.60 86.40,-1.60"/>
    </edge>
    <edge id="-L0" from="J0" to="N0" priority="-1">
        <lane id="-L0_0" index="0" speed="13.89" length="36.40" shape="-213.60,8.00 -250.00,8.00"/>
        <lane id="-L0_1" index="1" speed="13.89" length="36.40" shape="-213.60,4.80 -250.00,4.80"/>
        <lane id="-L0_2" index="2" speed="13.89" length="36.40" shape="-213.60,1.60 -250.00,1.60"/>
    </edge>
    <edge id="-L1" from="J0" to="N1" priority="-1">
        <lane id="-L1_0" index="0" speed="13.89" length="36.40" shape="-192.00,13.60 -192.00,50.00"/>
        <lane id="-L1_1" index="1" speed="13.89" length="36.40" shape="-195.20,13.60 -195.20,50.00"/>
        <lane id="-L1_2" index="2" speed="13.89" length="36.40" shape="-198.40,13.60 -198.40,50.00"/>
    </edge>
    <edge id="-L10" from="J5" to="N10" priority="-1">
        <lane id="-L10_0" index="0" speed="13.89" length="36.40" shape="92.00,-13.60 92.00,-50.00"/>
        <lane id="-L10_1" index="1" speed="13.89" length="36.40" shape="95.20,-13.60 95.20,-50.00"/>
        <lane id="-L10_2" index="2" speed="13.89" length="36.40" shape="98.40,-13.60 98.40,-50.00"/>
    </edge>
    <edge id="-L2" from="J0" to="N2" priority="-1">
        <lane id="-L2_0" index="0" speed="13.89" length="33.20" shape="-208.00,-16.80 -208.00,-50.00"/>
        <lane id="-L2_1" index="1" speed="13.89" length="33.20" shape="-204.80,-16.80 -204.80,-50.00"/>
        <lane id="-L2_2" index="2" speed="13.89" length="33.20" shape="-201.60,-16.80 -201.60,-50.00"/>
    </edge>
    <edge id="-L3" from="J1" to="N3" priority="-1">
        <lane id="-L3_0" index="0" speed="13.89" length="36.40" shape="-92.00,13.60 -92.00,50.00"/>
        <lane id="-L3_1" index="1" speed="13.89" length="36.40" shape="-95.20,13.60 -95.20,50.00"/>
        <lane id="-L3_2" index="2" speed="13.89" length="36.40" shape="-98.40,13.60 -98.40,50.00"/>
    </edge>
    <edge id="-L4" from="J1" to="N4" priority="-1">
        <lane id="-L4_0" index="0" speed="13.89" length="36.40" shape="-108.00,-13.60 -108.00,-50.00"/>
        <lane id="-L4_1" index="1" speed="13.89" length="36.40" shape="-104.80,-13.60 -104.80,-50.00"/>
        <lane id="-L4_2" index="2" speed="13.89" length="36.40" shape="-101.60,-13.60 -101.60,-50.00"/>
    </edge>
    <edge id="-L5" from="J2" to="N5" priority="-1">
        <lane id="-L5_0" index="0" speed="13.89" length="36.40" shape="-13.60,-92.00 -50.00,-92.00"/>
        <lane id="-L5_1" index="1" speed="13.89" length="36.40" shape="-13.60,-95.20 -50.00,-95.20"/>
        <lane id="-L5_2" index="2" speed="13.89" length="36.40" shape="-13.60,-98.40 -50.00,-98.40"/>
    </edge>
    <edge id="-L6" from="J2" to="N6" priority="-1">
        <lane id="-L6_0" index="0" speed="13.89" length="36.40" shape="-8.00,-113.60 -8.00,-150.00"/>
        <lane id="-L6_1" index="1" speed="13.89" length="36.40" shape="-4.80,-113.60 -4.80,-150.00"/>
        <lane id="-L6_2" index="2" speed="13.89" length="36.40" shape="-1.60,-113.60 -1.60,-150.00"/>
    </edge>
    <edge id="-L7" from="J2" to="N7" priority="-1">
        <lane id="-L7_0" index="0" speed="13.89" length="42.80" shape="7.20,-108.00 50.00,-108.00"/>
        <lane id="-L7_1" index="1" speed="13.89" length="42.80" shape="7.20,-104.80 50.00,-104.80"/>
        <lane id="-L7_2" index="2" speed="13.89" length="42.80" shape="7.20,-101.60 50.00,-101.60"/>
    </edge>
    <edge id="-L8" from="J5" to="N8" priority="-1">
        <lane id="-L8_0" index="0" speed="13.89" length="36.40" shape="108.00,13.60 108.00,50.00"/>
        <lane id="-L8_1" index="1" speed="13.89" length="36.40" shape="104.80,13.60 104.80,50.00"/>
        <lane id="-L8_2" index="2" speed="13.89" length="36.40" shape="101.60,13.60 101.60,50.00"/>
    </edge>
    <edge id="-L9" from="J5" to="N9" priority="-1">
        <lane id="-L9_0" index="0" speed="13.89" length="36.40" shape="113.60,-8.00 150.00,-8.00"/>
        <lane id="-L9_1" index="1" speed="13.89" length="36.40" shape="113.60,-4.80 150.00,-4.80"/>
        <lane id="-L9_2" index="2" speed="13.89" length="36.40" shape="113.60,-1.60 150.00,-1.60"/>
    </edge>
    <edge id="E0" from="J1" to="J0" priority="-1">
        <lane id="E0_0" index="0" speed="13.89" length="72.80" shape="-113.60,8.00 -186.40,8.00"/>
        <lane id="E0_1" index="1" speed="13.89" length="72.80" shape="-113.60,4.80 -186.40,4.80"/>
        <lane id="E0_2" index="2" speed="13.89" length="72.80" shape="-113.60,1.60 -186.40,1.60"/>
    </edge>
    <edge id="E1" from="J4" to="J1" priority="-1">
        <lane id="E1_0" index="0" speed="13.89" length="72.80" shape="-13.60,4.80 -86.40,4.80"/>
        <lane id="E1_1" index="1" speed="13.89" length="72.80" shape="-13.60,1.60 -86.40,1.60"/>
    </edge>
    <edge id="E2" from="J4" to="J2" priority="-1">
        <lane id="E2_0" index="0" speed="13.89" length="72.80" shape="-8.00,-13.60 -8.00,-86.40"/>
        <lane id="E2_1" index="1" speed="13.89" length="72.80" shape="-4.80,-13.60 -4.80,-86.40"/>
        <lane id="E2_2" index="2" speed="13.89" length="72.80" shape="-1.60,-13.60 -1.60,-86.40"/>
    </edge>
    <edge id="E3" from="J5" to="J4" priority="-1">
        <lane id="E3_0" index="0" speed="13.89" length="79.20" shape="86.40,4.80 7.20,4.80"/>
        <lane id="E3_1" index="1" speed="13.89" length="79.20" shape="86.40,1.60 7.20,1.60"/>
    </edge>
    <edge id="L0" from="N0" to="J0" priority="-1">
        <lane id="L0_0" index="0" speed="13.89" length="36.40" shape="-250.00,-11.20 -213.60,-11.20"/>
        <lane id="L0_1" index="1" speed="13.89" length="36.40" shape="-250.00,-8.00 -213.60,-8.00"/>
        <lane id="L0_2" index="2" speed="13.89" length="36.40" shape="-250.00,-4.80 -213.60,-4.80"/>
        <lane id="L0_3" index="3" speed="13.89" length="36.40" shape="-250.00,-1.60 -213.60,-1.60"/>
    </edge>
    <edge id="L1" from="N1" to="J0" priority="-1">
        <lane id="L1_0" index="0" speed="13.89" length="36.40" shape="-208.00,50.00 -208.00,13.60"/>
        <lane id="L1_1" index="1" speed="13.89" length="36.40" shape="-204.80,50.00 -204.80,13.60"/>
        <lane id="L1_2" index="2" speed="13.89" length="36.40" shape="-201.60,50.00 -201.60,13.60"/>
    </edge>
    <edge id="L10" from="N10" to="J5" priority="-1">
        <lane id="L10_0" index="0" speed="13.89" length="36.40" shape="104.80,-50.00 104.80,-13.60"/>
        <lane id="L10_1" index="1" speed="13.89" length="36.40" shape="101.60,-50.00 101.60,-13.60"/>
    </edge>
    <edge id="L2" from="N2" to="J0" priority="-1">
        <lane id="L2_0" index="0" speed="13.89" length="33.20" shape="-192.00,-50.00 -192.00,-16.80"/>
        <lane id="L2_1" index="1" speed="13.89" length="33.20" shape="-195.20,-50.00 -195.20,-16.80"/>
        <lane id="L2_2" index="2" speed="13.89" length="33.20" shape="-198.40,-50.00 -198.40,-16.80"/>
    </edge>
    <edge id="L3" from="N3" to="J1" priority="-1">
        <lane id="L3_0" index="0" speed="13.89" length="36.40" shape="-101.60,50.00 -101.60,13.60"/>
    </edge>
    <edge id="L4" from="N4" to="J1" priority="-1">
        <lane id="L4_0" index="0" speed="13.89" length="36.40" shape="-95.20,-50.00 -95.20,-13.60"/>
        <lane id="L4_1" index="1" speed="13.89" length="36.40" shape="-98.40,-50.00 -98.40,-13.60"/>
    </edge>
    <edge id="L5" from="N5" to="J2" priority="-1">
        <lane id="L5_0" index="0" speed="13.89" length="36.40" shape="-50.00,-101.60 -13.60,-101.60"/>
    </edge>
    <edge id="L6" from="N6" to="J2" priority="-1">
        <lane id="L6_0" index="0" speed="13.89" length="36.40" shape="1.60,-150.00 1.60,-113.60"/>
    </edge>
    <edge id="L7" from="N7" to="J2" priority="-1">
        <lane id="L7_0" index="0" speed="13.89" length="42.80" shape="50.00,-95.20 7.20,-95.20"/>
        <lane id="L7_1" index="1" speed="13.89" length="42.80" shape="50.00,-98.40 7.20,-98.40"/>
    </edge>
    <edge id="L8" from="N8" to="J5" priority="-1">
        <lane id="L8_0" index="0" speed="13.89" length="36.40" shape="92.00,50.00 92.00,13.60"/>
        <lane id="L8_1" index="1" speed="13.89" length="36.40" shape="95.20,50.00 95.20,13.60"/>
        <lane id="L8_2" index="2" speed="13.89" length="36.40" shape="98.40,50.00 98.40,13.60"/>
    </edge>
    <edge id="L9" from="N9" to="J5" priority="-1">
        <lane id="L9_0" index="0" speed="13.89" length="36.40" shape="150.00,8.00 113.60,8.00"/>
        <lane id="L9_1" index="1" speed="13.89" length="36.40" shape="150.00,4.80 113.60,4.80"/>
        <lane id="L9_2" index="2" speed="13.89" length="36.40" shape="150.00,1.60 113.60,1.60"/>
    </edge>

    <tlLogic id="J0" type="static" programID="0" offset="0">
        <phase duration="38" state="grrrrGGGGggrrrrGGGGg"/>
        <phase duration="3"  state="GrrrrGyyyyGrrrrGyyyy"/>
        <phase duration="37" state="GGGGggrrrrGGGGggrrrr"/>
        <phase duration="3"  state="GyyyyGrrrrGyyyyGrrrr"/>
    </tlLogic>
    <tlLogic id="J1" type="static" programID="0" offset="0">
        <phase duration="42" state="grrrrGGGGggrrrrGGGGg"/>
        <phase duration="3"  state="GrrrrGyyyyGrrrrGyyyy"/>
        <phase duration="42" state="GGGGggrrrrGGGGggrrrr"/>
        <phase duration="3"  state="GyyyyGrrrrGyyyyGrrrr"/>
    </tlLogic>
    <tlLogic id="J2" type="static" programID="0" offset="0">
        <phase duration="42" state="GGGGggrrrrGGggrrrr"/>
        <phase duration="3"  state="GyyyyGrrrrGyyGrrrr"/>
        <phase duration="42" state="grrrrGGGGggrrGGGGg"/>
        <phase duration="3"  state="GrrrrGyyyyGrrGyyyy"/>
    </tlLogic>
    <tlLogic id="J4" type="static" programID="0" offset="0">
        <phase duration="42" state="GGgggrGGGG"/>
        <phase duration="3"  state="yyyyGrGyyy"/>
        <phase duration="42" state="rrrrGGGrrr"/>
        <phase duration="3"  state="rrrrGyGrrr"/>
    </tlLogic>
    <tlLogic id="J5" type="static" programID="0" offset="0">
        <phase duration="38" state="grrrrGGGggrrrrGGGGg"/>
        <phase duration="3"  state="GrrrrGyyyGrrrrGyyyy"/>
        <phase duration="37" state="GGGGggrrrGGGGggrrrr"/>
        <phase duration="3"  state="GyyyyGrrrGyyyyGrrrr"/>
    </tlLogic>
